[Format]      =  4.0
[Frequency]   =  0
[Precision]   =  1e-008
[MinAngle]    =  30
[DoSmartMesh] =  1
[Depth]       =  1
[LengthUnits] =  millimeters
[ProblemType] =  planar
[Coordinates] =  cartesian
[ACSolver]    =  0
[PrevType]    =  0
[PrevSoln]    =  ""
[Comment]     =  "Add comments here."
[PointProps]   = 0
[BdryProps]   = 0
[BlockProps]  = 5
  <BeginBlock>
    <BlockName> = "Air"
    <Mu_x> = 1
    <Mu_y> = 1
    <H_c> = 0
    <H_cAngle> = 0
    <J_re> = 0
    <J_im> = 0
    <Sigma> = 0
    <d_lam> = 0
    <Phi_h> = 0
    <Phi_hx> = 0
    <Phi_hy> = 0
    <LamType> = 0
    <LamFill> = 1
    <NStrands> = 0
    <WireD> = 0
    <BHPoints> = 0
  <EndBlock>
  <BeginBlock>
    <BlockName> = "N30"
    <Mu_x> = 1.05
    <Mu_y> = 1.05
    <H_c> = 836420
    <H_cAngle> = 0
    <J_re> = 0
    <J_im> = 0
    <Sigma> = 0.66700000000000004
    <d_lam> = 0
    <Phi_h> = 0
    <Phi_hx> = 0
    <Phi_hy> = 0
    <LamType> = 0
    <LamFill> = 1
    <NStrands> = 0
    <WireD> = 0
    <BHPoints> = 0
  <EndBlock>
  <BeginBlock>
    <BlockName> = "N55"
    <Mu_x> = 1.05
    <Mu_y> = 1.05
    <H_c> = 922850
    <H_cAngle> = 0
    <J_re> = 0
    <J_im> = 0
    <Sigma> = 0.66700000000000004
    <d_lam> = 0
    <Phi_h> = 0
    <Phi_hx> = 0
    <Phi_hy> = 0
    <LamType> = 0
    <LamFill> = 1
    <NStrands> = 0
    <WireD> = 0
    <BHPoints> = 10
      0	0
      0.075300000000000006	5371
      0.15060000000000001	12456
      0.22589999999999999	22657
      0.30120000000000002	39606
      0.3765	72533
      0.45179999999999998	124321
      0.52710000000000001	180991
      0.60240000000000005	238036
      1.506	922850
  <EndBlock>
  <BeginBlock>
    <BlockName> = "N38"
    <Mu_x> = 1.05
    <Mu_y> = 1.05
    <H_c> = 944771
    <H_cAngle> = 0
    <J_re> = 0
    <J_im> = 0
    <Sigma> = 0.66700000000000004
    <d_lam> = 0
    <Phi_h> = 0
    <Phi_hx> = 0
    <Phi_hy> = 0
    <LamType> = 0
    <LamFill> = 1
    <NStrands> = 0
    <WireD> = 0
    <BHPoints> = 0
  <EndBlock>
  <BeginBlock>
    <BlockName> = "PLA"
    <Mu_x> = 1
    <Mu_y> = 1
    <H_c> = 0
    <H_cAngle> = 0
    <J_re> = 0
    <J_im> = 0
    <Sigma> = 5.6099999999999997e-006
    <d_lam> = 0
    <Phi_h> = 0
    <Phi_hx> = 0
    <Phi_hy> = 0
    <LamType> = 0
    <LamFill> = 1
    <NStrands> = 0
    <WireD> = 0
    <BHPoints> = 0
  <EndBlock>
[CircuitProps]  = 0
[NumPoints] = 148
-6	355	0	0
6	367	0	0
-6	367	0	0
6	355	0	0
-67	294	0	0
-55	294	0	0
-67	306	0	0
-55	306	0	0
5.999999999999992	233	0	0
5.9999999999999929	245	0	0
-6.000000000000008	233	0	0
-6.0000000000000071	245	0	0
67	306	0	0
55	306	0	0
67	294	0	0
55	294	0	0
-192	451	0	0
-182	179	0	0
170	182	0	0
168	461	0	0
49.200000000000003	349	0	0
49.200000000000003	337	0	0
37.200000000000003	349	0	0
37.200000000000003	337	0	0
-37.200000000000003	349.19999999999999	0	0
-49.200000000000003	349	0	0
-49.200000000000003	337	0	0
-37.200000000000003	337	0	0
-37.200000000000003	263	0	0
-49.200000000000003	263	0	0
-37.200000000000003	251	0	0
-49.200000000000003	251	0	0
48.799999999999997	264.19999999999999	0	0
36.799999999999997	264	0	0
36.799999999999997	252	0	0
48.799999999999997	252	0	0
-22	254.48528137423858	0	0
-22	237.51471862576142	0	0
-30.485281374238571	246	0	0
-13.514718625761429	246	0	0
34.485281374238568	352	0	0
26	360.48528137423858	0	0
17.514718625761429	352	0	0
26	343.51471862576142	0	0
-17.514718625761429	352	0	0
-26	360.48528137423858	0	0
-34.485281374238568	352	0	0
-26	343.51471862576142	0	0
33.485281374238568	247	0	0
25	255.48528137423858	0	0
16.514718625761429	247	0	0
25	238.51471862576142	0	0
-44.514718625761432	322	0	0
-53	330.48528137423858	0	0
-61.485281374238568	322	0	0
-53	313.51471862576142	0	0
61.485281374238568	322	0	0
53	330.48528137423858	0	0
44.514718625761432	322	0	0
53	313.51471862576142	0	0
-44.514718625761432	278	0	0
-53	286.48528137423858	0	0
-61.485281374238568	278	0	0
-53	269.51471862576142	0	0
61.485281374238568	278	0	0
53	286.48528137423858	0	0
44.514718625761432	278	0	0
53	269.51471862576142	0	0
394	47	0	0
394	35	0	0
406	47	0	0
406	35	0	0
353	-5.9999999999999956	0	0
365	-5.9999999999999964	0	0
353	6.0000000000000044	0	0
365	6.0000000000000036	0	0
406	-47	0	0
406	-35	0	0
394	-47	0	0
394	-35	0	0
447	5.9999999999999876	0	0
435	5.9999999999999902	0	0
447	-6.0000000000000124	0	0
435	-6.0000000000000098	0	0
208	151	0	0
568	161	0	0
570	-118	0	0
218	-121	0	0
422.19999999999999	34	0	0
434.19999999999999	34	0	0
434.19999999999999	22	0	0
422.19999999999999	22	0	0
377.80000000000001	34.200000000000003	0	0
365.80000000000001	34	0	0
365.80000000000001	22	0	0
377.80000000000001	22	0	0
365.80000000000001	-22	0	0
377.80000000000001	-22	0	0
365.80000000000001	-34	0	0
377.80000000000001	-34	0	0
433.80000000000001	-20.799999999999997	0	0
421.80000000000001	-21	0	0
421.80000000000001	-33	0	0
433.80000000000001	-33	0	0
-193	144	0	0
172	153	0	0
177	-130	0	0
-216	-131	0	0
7.5	47.5	0	0
-7.5	47.5	0	0
7.5	32.5	0	0
-7.5	32.5	0	0
-47.5	7.5000000000000027	0	0
-47.5	-7.4999999999999973	0	0
-32.5	7.5000000000000018	0	0
-32.5	-7.4999999999999982	0	0
-7.5000000000000062	-47.5	0	0
7.4999999999999938	-47.5	0	0
-7.5000000000000036	-32.5	0	0
7.4999999999999964	-32.5	0	0
47.5	-7.5000000000000089	0	0
47.5	7.4999999999999911	0	0
32.5	-7.5000000000000062	0	0
32.5	7.4999999999999938	0	0
35.5	35.5	0	0
20.5	35.5	0	0
20.5	20.5	0	0
35.5	20.5	0	0
-20.5	-20.5	0	0
-35.5	-20.5	0	0
-35.5	-35.5	0	0
-20.5	-35.5	0	0
-20.5	35.5	0	0
-35.5	35.5	0	0
-20.5	20.5	0	0
-35.5	20.5	0	0
35.5	-20.5	0	0
20.5	-20.5	0	0
35.5	-35.5	0	0
20.5	-35.5	0	0
359	-41	0	0
445	-40	0	0
447	44	0	0
359	44	0	0
386	16	0	0
418	-17	0	0
386	-17	0	0
417	15	0	0
[NumSegments] = 140
2	0	-1	0	0	0
2	1	-1	0	0	0
1	3	-1	0	0	0
3	0	-1	0	0	0
4	5	-1	0	0	0
4	6	-1	0	0	0
6	7	-1	0	0	0
7	5	-1	0	0	0
8	9	-1	0	0	0
8	10	-1	0	0	0
10	11	-1	0	0	0
11	9	-1	0	0	0
12	13	-1	0	0	0
12	14	-1	0	0	0
14	15	-1	0	0	0
15	13	-1	0	0	0
16	19	-1	0	0	0
19	18	-1	0	0	0
18	17	-1	0	0	0
17	16	-1	0	0	0
22	20	-1	0	0	0
20	21	-1	0	0	0
21	23	-1	0	0	0
23	22	-1	0	0	0
24	25	-1	0	0	0
26	25	-1	0	0	0
27	24	-1	0	0	0
26	27	-1	0	0	0
29	28	-1	0	0	0
31	29	-1	0	0	0
30	28	-1	0	0	0
30	31	-1	0	0	0
32	33	-1	0	0	0
34	33	-1	0	0	0
35	32	-1	0	0	0
34	35	-1	0	0	0
39	36	-1	0	0	0
38	36	-1	0	0	0
37	38	-1	0	0	0
37	39	-1	0	0	0
40	41	-1	0	0	0
42	41	-1	0	0	0
43	42	-1	0	0	0
43	40	-1	0	0	0
44	45	-1	0	0	0
46	45	-1	0	0	0
47	46	-1	0	0	0
47	44	-1	0	0	0
48	49	-1	0	0	0
50	49	-1	0	0	0
51	50	-1	0	0	0
51	48	-1	0	0	0
52	53	-1	0	0	0
54	53	-1	0	0	0
55	54	-1	0	0	0
55	52	-1	0	0	0
56	57	-1	0	0	0
58	57	-1	0	0	0
59	58	-1	0	0	0
59	56	-1	0	0	0
60	61	-1	0	0	0
62	61	-1	0	0	0
63	62	-1	0	0	0
63	60	-1	0	0	0
64	65	-1	0	0	0
66	65	-1	0	0	0
67	66	-1	0	0	0
67	64	-1	0	0	0
68	69	-1	0	0	0
68	70	-1	0	0	0
70	71	-1	0	0	0
71	69	-1	0	0	0
72	73	-1	0	0	0
72	74	-1	0	0	0
74	75	-1	0	0	0
75	73	-1	0	0	0
76	77	-1	0	0	0
76	78	-1	0	0	0
78	79	-1	0	0	0
79	77	-1	0	0	0
80	81	-1	0	0	0
80	82	-1	0	0	0
82	83	-1	0	0	0
83	81	-1	0	0	0
84	85	-1	0	0	0
85	86	-1	0	0	0
86	87	-1	0	0	0
87	84	-1	0	0	0
88	89	-1	0	0	0
89	90	-1	0	0	0
90	91	-1	0	0	0
91	88	-1	0	0	0
92	93	-1	0	0	0
94	93	-1	0	0	0
95	92	-1	0	0	0
94	95	-1	0	0	0
96	97	-1	0	0	0
98	96	-1	0	0	0
99	97	-1	0	0	0
99	98	-1	0	0	0
100	101	-1	0	0	0
102	101	-1	0	0	0
103	100	-1	0	0	0
102	103	-1	0	0	0
104	107	-1	0	0	0
107	106	-1	0	0	0
106	105	-1	0	0	0
105	104	-1	0	0	0
111	109	-1	0	0	0
111	110	-1	0	0	0
110	108	-1	0	0	0
108	109	-1	0	0	0
115	113	-1	0	0	0
115	114	-1	0	0	0
114	112	-1	0	0	0
112	113	-1	0	0	0
119	117	-1	0	0	0
119	118	-1	0	0	0
118	116	-1	0	0	0
116	117	-1	0	0	0
123	121	-1	0	0	0
123	122	-1	0	0	0
122	120	-1	0	0	0
120	121	-1	0	0	0
133	132	-1	0	0	0
132	134	-1	0	0	0
134	135	-1	0	0	0
135	133	-1	0	0	0
126	127	-1	0	0	0
127	124	-1	0	0	0
124	125	-1	0	0	0
125	126	-1	0	0	0
137	136	-1	0	0	0
138	139	-1	0	0	0
139	137	-1	0	0	0
136	138	-1	0	0	0
131	130	-1	0	0	0
129	130	-1	0	0	0
128	131	-1	0	0	0
128	129	-1	0	0	0
[NumArcSegments] = 8
143	140	90	1	0	0	0	1
140	141	90	1	0	0	0	1
141	142	90	1	0	0	0	1
142	143	90	1	0	0	0	1
147	144	90	1	0	0	0	1
144	146	90	1	0	0	0	1
146	145	90	1	0	0	0	1
145	147	90	1	0	0	0	1
[NumHoles] = 0
[NumBlockLabels] = 37
0	360	3	-1	0	90	0	1	0
-42.426406871192846	342.42640687119285	3	-1	0	180	0	1	0
-60	300	3	-1	0	-90	0	1	0
-42.426406871192853	257.57359312880715	3	-1	0	0	0	1	0
-7.3478807948841199e-015	240	3	-1	0	90	0	1	0
42.426406871192846	257.57359312880715	3	-1	0	180	0	1	0
60	300	3	-1	0	-90	0	1	0
42.42640687119286	342.42640687119285	3	-1	0	0	0	1	0
-112	357	1	-1	0	0	0	1	0
-21	352	1	-1	0	-45	0	1	0
25	352	1	-1	0	-45	0	1	0
23	242	1	-1	0	-45	0	1	0
-21	246	1	-1	0	-45	0	1	0
-52	323	1	-1	0	-45	0	1	0
52	276	1	-1	0	-45	0	1	0
54	323	1	-1	0	-45	0	1	0
-53	276	1	-1	0	-45	0	1	0
400	40	4	-1	0	90	0	1	0
372.57359312880715	27.426406871192853	4	-1	0	180	0	1	0
360	3.67394039744206e-015	4	-1	0	-90	0	1	0
372.57359312880715	-27.426406871192846	4	-1	0	0	0	1	0
400	-40	4	-1	0	90	0	1	0
427.42640687119285	-27.42640687119286	4	-1	0	180	0	1	0
440	-1.1021821192326178e-014	4	-1	0	-90	0	1	0
427.42640687119285	27.426406871192839	4	-1	0	0	0	1	0
288	57	1	-1	0	0	0	1	0
-91	61	1	-1	0	0	0	1	0
0	40	4	-1	0	90	0	1	0
-27.426406871192853	27.426406871192853	4	-1	0	180	0	1	0
-40	3.67394039744206e-015	4	-1	0	-90	0	1	0
-27.426406871192853	-27.426406871192846	4	-1	0	0	0	1	0
0	-40	4	-1	0	90	0	1	0
27.426406871192853	-27.42640687119286	4	-1	0	180	0	1	0
40	-1.1021821192326178e-014	4	-1	0	-90	0	1	0
27.426406871192853	27.426406871192839	4	-1	0	0	0	1	0
412	1	1	-1	0	0	0	1	0
452	19	5	-1	0	0	0	1	0
