[Format]      =  4.0
[Frequency]   =  0
[Precision]   =  1e-008
[MinAngle]    =  30
[DoSmartMesh] =  1
[Depth]       =  10
[LengthUnits] =  centimeters
[ProblemType] =  planar
[Coordinates] =  cartesian
[ACSolver]    =  0
[PrevType]    =  0
[PrevSoln]    =  ""
[Comment]     =  "Add comments here."
[PointProps]   = 0
[BdryProps]   = 0
[BlockProps]  = 4
  <BeginBlock>
    <BlockName> = "N42"
    <Mu_x> = 1.05
    <Mu_y> = 1.05
    <H_c> = 994529
    <H_cAngle> = 0
    <J_re> = 0
    <J_im> = 0
    <Sigma> = 0.66700000000000004
    <d_lam> = 0
    <Phi_h> = 0
    <Phi_hx> = 0
    <Phi_hy> = 0
    <LamType> = 0
    <LamFill> = 1
    <NStrands> = 0
    <WireD> = 0
    <BHPoints> = 0
  <EndBlock>
  <BeginBlock>
    <BlockName> = "Air"
    <Mu_x> = 1
    <Mu_y> = 1
    <H_c> = 0
    <H_cAngle> = 0
    <J_re> = 0
    <J_im> = 0
    <Sigma> = 0
    <d_lam> = 0
    <Phi_h> = 0
    <Phi_hx> = 0
    <Phi_hy> = 0
    <LamType> = 0
    <LamFill> = 1
    <NStrands> = 0
    <WireD> = 0
    <BHPoints> = 0
  <EndBlock>
  <BeginBlock>
    <BlockName> = "N55"
    <Mu_x> = 1.05
    <Mu_y> = 1.05
    <H_c> = 922850
    <H_cAngle> = 0
    <J_re> = 0
    <J_im> = 0
    <Sigma> = 0.66700000000000004
    <d_lam> = 0
    <Phi_h> = 0
    <Phi_hx> = 0
    <Phi_hy> = 0
    <LamType> = 0
    <LamFill> = 1
    <NStrands> = 0
    <WireD> = 0
    <BHPoints> = 10
      0	0
      0.075300000000000006	5371
      0.15060000000000001	12456
      0.22589999999999999	22657
      0.30120000000000002	39606
      0.3765	72533
      0.45179999999999998	124321
      0.52710000000000001	180991
      0.60240000000000005	238036
      1.506	922850
  <EndBlock>
  <BeginBlock>
    <BlockName> = "N35"
    <Mu_x> = 1.05
    <Mu_y> = 1.05
    <H_c> = 905659
    <H_cAngle> = 0
    <J_re> = 0
    <J_im> = 0
    <Sigma> = 0.66700000000000004
    <d_lam> = 0
    <Phi_h> = 0
    <Phi_hx> = 0
    <Phi_hy> = 0
    <LamType> = 0
    <LamFill> = 1
    <NStrands> = 0
    <WireD> = 0
    <BHPoints> = 0
  <EndBlock>
[CircuitProps]  = 0
[NumPoints] = 468
8	15.25	0	0
7	15.25	0	0
7	16.25	0	0
8	16.25	0	0
15.25	8	0	0
15.25	7	0	0
16.25	7	0	0
16.25	8	0	0
-1.25	8	0	0
-0.25	8	0	0
-0.25	7	0	0
-1.25	7	0	0
7	-0.25	0	0
8	-0.25	0	0
8	-1.25	0	0
7	-1.25	0	0
-1.75	16.75	0	0
16.75	16.75	0	0
16.75	-1.75	0	0
-1.75	-1.75	0	0
0.95926227402443587	13.333630944789018	0	0
1.6663690552109838	14.040737725975564	0	0
2.3734758363975308	13.333630944789018	0	0
1.6663690552109829	12.62652416360247	0	0
12.62652416360247	13.333630944789018	0	0
13.333630944789018	14.040737725975564	0	0
14.040737725975564	13.333630944789016	0	0
13.333630944789018	12.626524163602468	0	0
0.95926227402443498	1.6663690552109838	0	0
1.666369055210982	2.3734758363975308	0	0
2.3734758363975299	1.6663690552109829	0	0
1.6663690552109829	0.95926227402443587	0	0
12.626524163602468	1.666369055210982	0	0
13.333630944789018	2.3734758363975299	0	0
14.040737725975564	1.6663690552109829	0	0
13.333630944789016	0.95926227402443498	0	0
3.6895802005498211	15.392604193291213	0	0
4.6134597330611076	15.775287625656304	0	0
4.9961431654261972	14.851408093145018	0	0
4.0722636329149111	14.468724660779927	0	0
14.468724660779927	10.927736367085089	0	0
15.392604193291213	11.310419799450179	0	0
15.775287625656304	10.386540266938892	0	0
14.851408093145018	10.003856834573803	0	0
-0.77528762565630416	4.6134597330611076	0	0
0.1485919068549828	4.9961431654261972	0	0
0.53127533922007242	4.0722636329149111	0	0
-0.39260419329121365	3.6895802005498211	0	0
10.003856834573803	0.1485919068549828	0	0
10.927736367085089	0.53127533922007242	0	0
11.310419799450179	-0.39260419329121365	0	0
10.386540266938892	-0.77528762565630416	0	0
-0.77528762565630416	10.386540266938892	0	0
-0.39260419329121365	11.310419799450179	0	0
0.53127533922007242	10.927736367085089	0	0
0.14859190685498191	10.003856834573803	0	0
10.003856834573803	14.851408093145018	0	0
10.386540266938892	15.775287625656304	0	0
11.310419799450179	15.392604193291213	0	0
10.927736367085089	14.468724660779927	0	0
3.6895802005498211	-0.39260419329121454	0	0
4.0722636329149102	0.53127533922007242	0	0
4.9961431654261972	0.14859190685498191	0	0
4.6134597330611076	-0.77528762565630416	0	0
14.468724660779927	4.0722636329149102	0	0
14.851408093145018	4.9961431654261972	0	0
15.775287625656304	4.6134597330611076	0	0
15.392604193291215	3.6895802005498211	0	0
5.3025670421572624	15.984326042520202	0	0
6.2833523225604928	16.17941636453633	0	0
6.4784426445766208	15.198631084133099	0	0
5.4976573641733903	15.003540762116971	0	0
15.003540762116971	9.5023426358266097	0	0
15.984326042520202	9.6974329578427376	0	0
16.17941636453633	8.7166476774395072	0	0
15.198631084133099	8.5215573554233792	0	0
-1.1794163645363298	6.2833523225604928	0	0
-0.19863108413309938	6.4784426445766208	0	0
-0.0035407621169714076	5.4976573641733903	0	0
-0.98432604252020184	5.3025670421572624	0	0
8.5215573554233792	-0.19863108413309938	0	0
9.5023426358266097	-0.0035407621169714076	0	0
9.6974329578427376	-0.98432604252020184	0	0
8.7166476774395072	-1.1794163645363298	0	0
-0.053144224157071207	11.945504732770248	0	0
0.50242600886253186	12.776974345072791	0	0
1.3338956211650759	12.22140411205319	0	0
0.7783253881454737	11.389934499750645	0	0
11.389934499750645	14.221674611854528	0	0
11.945504732770248	15.053144224157071	0	0
12.776974345072791	14.497573991137468	0	0
12.22140411205319	13.666104378834923	0	0
2.2230256549272074	0.50242600886253186	0	0
2.7785958879468096	1.3338956211650759	0	0
3.6100655002493549	0.7783253881454737	0	0
3.0544952672297532	-0.053144224157071207	0	0
13.666104378834923	2.7785958879468096	0	0
14.221674611854528	3.6100655002493554	0	0
15.053144224157071	3.0544952672297532	0	0
14.497573991137468	2.2230256549272074	0	0
2.2230256549272083	14.497573991137468	0	0
3.0544952672297532	15.053144224157073	0	0
3.6100655002493554	14.221674611854528	0	0
2.7785958879468104	13.666104378834923	0	0
13.666104378834923	12.22140411205319	0	0
14.497573991137468	12.776974345072791	0	0
15.053144224157073	11.945504732770246	0	0
14.221674611854528	11.389934499750645	0	0
-0.053144224157072095	3.0544952672297532	0	0
0.7783253881454737	3.6100655002493554	0	0
1.333895621165075	2.7785958879468104	0	0
0.50242600886253097	2.2230256549272083	0	0
11.389934499750645	0.7783253881454737	0	0
12.22140411205319	1.333895621165075	0	0
12.776974345072791	0.50242600886253097	0	0
11.945504732770246	-0.053144224157072095	0	0
-1.1794163645363298	8.7166476774395072	0	0
-0.98432604252020184	9.6974329578427376	0	0
-0.0035407621169714076	9.5023426358266079	0	0
-0.19863108413310027	8.5215573554233792	0	0
8.5215573554233792	15.198631084133101	0	0
8.7166476774395072	16.17941636453633	0	0
9.6974329578427376	15.9843260425202	0	0
9.5023426358266097	15.00354076211697	0	0
5.3025670421572624	-0.98432604252020184	0	0
5.4976573641733903	-0.0035407621169722958	0	0
6.4784426445766208	-0.19863108413310027	0	0
6.2833523225604928	-1.1794163645363298	0	0
15.003540762116971	5.4976573641733903	0	0
15.198631084133101	6.4784426445766208	0	0
16.17941636453633	6.2833523225604928	0	0
15.984326042520202	5.3025670421572624	0	0
-21.75	16.75	0	0
-3.25	16.75	0	0
-3.25	-1.75	0	0
-21.75	-1.75	0	0
-13	16.25	0	0
-12	16.25	0	0
-12	15.25	0	0
-13	15.25	0	0
-4.75	8	0	0
-3.75	8	0	0
-3.75	7	0	0
-4.75	7	0	0
-21.25	8	0	0
-20.25	8	0	0
-20.25	7	0	0
-21.25	7	0	0
-13	-0.25	0	0
-12	-0.25	0	0
-12	-1.25	0	0
-13	-1.25	0	0
-19.040737725975564	13.333630944789018	0	0
-18.333630944789014	14.040737725975564	0	0
-17.626524163602468	13.333630944789018	0	0
-18.333630944789018	12.62652416360247	0	0
-7.3734758363975299	13.333630944789018	0	0
-6.666369055210982	14.040737725975564	0	0
-5.9592622740244359	13.333630944789016	0	0
-6.666369055210982	12.626524163602468	0	0
-19.040737725975564	1.6663690552109838	0	0
-18.333630944789018	2.3734758363975308	0	0
-17.626524163602468	1.6663690552109829	0	0
-18.333630944789018	0.95926227402443587	0	0
-7.3734758363975317	1.666369055210982	0	0
-6.666369055210982	2.3734758363975299	0	0
-5.9592622740244359	1.6663690552109829	0	0
-6.6663690552109838	0.95926227402443498	0	0
-16.31041979945018	15.392604193291213	0	0
-15.386540266938892	15.775287625656304	0	0
-15.003856834573803	14.851408093145018	0	0
-15.927736367085089	14.468724660779927	0	0
-5.5312753392200733	10.927736367085089	0	0
-4.6073958067087872	11.310419799450179	0	0
-4.2247123743436958	10.386540266938892	0	0
-5.1485919068549819	10.003856834573803	0	0
-20.775287625656304	4.6134597330611076	0	0
-19.851408093145018	4.9961431654261972	0	0
-19.468724660779927	4.0722636329149111	0	0
-20.392604193291213	3.6895802005498211	0	0
-9.9961431654261972	0.1485919068549828	0	0
-9.0722636329149111	0.53127533922007242	0	0
-8.6895802005498215	-0.39260419329121365	0	0
-9.6134597330611076	-0.77528762565630416	0	0
-20.775287625656304	10.386540266938892	0	0
-20.392604193291213	11.310419799450179	0	0
-19.468724660779927	10.927736367085089	0	0
-19.851408093145018	10.003856834573803	0	0
-9.9961431654261972	14.851408093145018	0	0
-9.6134597330611076	15.775287625656304	0	0
-8.6895802005498215	15.392604193291213	0	0
-9.0722636329149111	14.468724660779927	0	0
-16.31041979945018	-0.39260419329121454	0	0
-15.927736367085089	0.53127533922007242	0	0
-15.003856834573803	0.14859190685498191	0	0
-15.386540266938892	-0.77528762565630416	0	0
-5.5312753392200733	4.0722636329149102	0	0
-5.1485919068549819	4.9961431654261972	0	0
-4.2247123743436958	4.6134597330611076	0	0
-4.6073958067087855	3.6895802005498211	0	0
-14.697432957842738	15.984326042520202	0	0
-13.716647677439507	16.17941636453633	0	0
-13.521557355423379	15.198631084133099	0	0
-14.50234263582661	15.003540762116971	0	0
-4.9964592378830286	9.5023426358266097	0	0
-4.0156739574797982	9.6974329578427376	0	0
-3.8205836354636702	8.7166476774395072	0	0
-4.8013689158669006	8.5215573554233792	0	0
-21.17941636453633	6.2833523225604928	0	0
-20.198631084133098	6.4784426445766208	0	0
-20.00354076211697	5.4976573641733903	0	0
-20.984326042520202	5.3025670421572624	0	0
-11.478442644576621	-0.19863108413309938	0	0
-10.49765736417339	-0.0035407621169714076	0	0
-10.302567042157262	-0.98432604252020184	0	0
-11.283352322560493	-1.1794163645363298	0	0
-20.053144224157073	11.945504732770248	0	0
-19.497573991137468	12.776974345072791	0	0
-18.666104378834923	12.22140411205319	0	0
-19.221674611854525	11.389934499750645	0	0
-8.6100655002493554	14.221674611854528	0	0
-8.0544952672297523	15.053144224157071	0	0
-7.2230256549272092	14.497573991137468	0	0
-7.7785958879468104	13.666104378834923	0	0
-17.776974345072794	0.50242600886253186	0	0
-17.22140411205319	1.3338956211650759	0	0
-16.389934499750645	0.7783253881454737	0	0
-16.945504732770246	-0.053144224157071207	0	0
-6.3338956211650768	2.7785958879468096	0	0
-5.7783253881454719	3.6100655002493554	0	0
-4.9468557758429288	3.0544952672297532	0	0
-5.5024260088625319	2.2230256549272074	0	0
-17.776974345072791	14.497573991137468	0	0
-16.945504732770246	15.053144224157073	0	0
-16.389934499750645	14.221674611854528	0	0
-17.22140411205319	13.666104378834923	0	0
-6.3338956211650768	12.22140411205319	0	0
-5.5024260088625319	12.776974345072791	0	0
-4.946855775842927	11.945504732770246	0	0
-5.7783253881454719	11.389934499750645	0	0
-20.053144224157073	3.0544952672297532	0	0
-19.221674611854525	3.6100655002493554	0	0
-18.666104378834923	2.7785958879468104	0	0
-19.497573991137468	2.2230256549272083	0	0
-8.6100655002493554	0.7783253881454737	0	0
-7.7785958879468104	1.333895621165075	0	0
-7.2230256549272092	0.50242600886253097	0	0
-8.0544952672297541	-0.053144224157072095	0	0
-21.17941636453633	8.7166476774395072	0	0
-20.984326042520202	9.6974329578427376	0	0
-20.00354076211697	9.5023426358266079	0	0
-20.198631084133101	8.5215573554233792	0	0
-11.478442644576621	15.198631084133101	0	0
-11.283352322560493	16.17941636453633	0	0
-10.302567042157262	15.9843260425202	0	0
-10.49765736417339	15.00354076211697	0	0
-14.697432957842738	-0.98432604252020184	0	0
-14.50234263582661	-0.0035407621169722958	0	0
-13.521557355423379	-0.19863108413310027	0	0
-13.716647677439507	-1.1794163645363298	0	0
-4.9964592378830286	5.4976573641733903	0	0
-4.8013689158668988	6.4784426445766208	0	0
-3.8205836354636702	6.2833523225604928	0	0
-4.0156739574797982	5.3025670421572624	0	0
7	36.25	0	0
8	36.25	0	0
8	35.25	0	0
7	35.25	0	0
15.25	28	0	0
16.25	28	0	0
16.25	27	0	0
15.25	27	0	0
-1.25	28	0	0
-0.25	28	0	0
-0.25	27	0	0
-1.25	27	0	0
7	19.75	0	0
8	19.75	0	0
8	18.75	0	0
7	18.75	0	0
-1.75	36.75	0	0
16.75	36.75	0	0
16.75	18.25	0	0
-1.75	18.25	0	0
0.95926227402443587	33.333630944789022	0	0
1.6663690552109838	34.040737725975561	0	0
2.3734758363975308	33.333630944789022	0	0
1.6663690552109829	32.626524163602468	0	0
12.62652416360247	33.333630944789022	0	0
13.333630944789018	34.040737725975561	0	0
14.040737725975564	33.333630944789014	0	0
13.333630944789018	32.626524163602468	0	0
0.95926227402443498	21.666369055210986	0	0
1.666369055210982	22.373475836397532	0	0
2.3734758363975299	21.666369055210982	0	0
1.6663690552109829	20.959262274024436	0	0
12.626524163602468	21.666369055210982	0	0
13.333630944789018	22.373475836397532	0	0
14.040737725975564	21.666369055210982	0	0
13.333630944789016	20.959262274024436	0	0
3.6895802005498211	35.392604193291213	0	0
4.6134597330611076	35.775287625656304	0	0
4.9961431654261972	34.851408093145018	0	0
4.0722636329149111	34.468724660779927	0	0
14.468724660779927	30.927736367085089	0	0
15.392604193291213	31.31041979945018	0	0
15.775287625656304	30.386540266938894	0	0
14.851408093145018	30.003856834573803	0	0
-0.77528762565630416	24.613459733061106	0	0
0.1485919068549828	24.996143165426197	0	0
0.53127533922007242	24.072263632914911	0	0
-0.39260419329121365	23.68958020054982	0	0
10.003856834573803	20.148591906854982	0	0
10.927736367085089	20.531275339220073	0	0
11.310419799450179	19.607395806708787	0	0
10.386540266938892	19.224712374343696	0	0
-0.77528762565630416	30.386540266938894	0	0
-0.39260419329121365	31.31041979945018	0	0
0.53127533922007242	30.927736367085089	0	0
0.14859190685498191	30.003856834573803	0	0
10.003856834573803	34.851408093145018	0	0
10.386540266938892	35.775287625656304	0	0
11.310419799450179	35.392604193291213	0	0
10.927736367085089	34.468724660779927	0	0
3.6895802005498211	19.607395806708787	0	0
4.0722636329149102	20.531275339220073	0	0
4.9961431654261972	20.148591906854982	0	0
4.6134597330611076	19.224712374343696	0	0
14.468724660779927	24.072263632914911	0	0
14.851408093145018	24.996143165426197	0	0
15.775287625656304	24.613459733061106	0	0
15.392604193291215	23.68958020054982	0	0
47	36.25	0	0
48	36.25	0	0
48	35.25	0	0
47	35.25	0	0
55.25	28	0	0
56.25	28	0	0
56.25	27	0	0
55.25	27	0	0
38.75	28	0	0
39.75	28	0	0
39.75	27	0	0
38.75	27	0	0
47	19.75	0	0
48	19.75	0	0
48	18.75	0	0
47	18.75	0	0
38.25	36.75	0	0
56.75	36.75	0	0
56.75	18.25	0	0
38.25	18.25	0	0
40.959262274024439	33.333630944789022	0	0
41.666369055210986	34.040737725975561	0	0
42.373475836397532	33.333630944789022	0	0
41.666369055210986	32.626524163602468	0	0
52.626524163602468	33.333630944789022	0	0
53.333630944789022	34.040737725975561	0	0
54.040737725975561	33.333630944789014	0	0
53.333630944789022	32.626524163602468	0	0
40.959262274024432	21.666369055210986	0	0
41.666369055210978	22.373475836397532	0	0
42.373475836397532	21.666369055210982	0	0
41.666369055210986	20.959262274024436	0	0
52.626524163602468	21.666369055210982	0	0
53.333630944789022	22.373475836397532	0	0
54.040737725975561	21.666369055210982	0	0
53.333630944789014	20.959262274024436	0	0
43.68958020054982	35.392604193291213	0	0
44.613459733061106	35.775287625656304	0	0
44.996143165426197	34.851408093145018	0	0
44.072263632914911	34.468724660779927	0	0
54.468724660779927	30.927736367085089	0	0
55.392604193291213	31.31041979945018	0	0
55.775287625656304	30.386540266938894	0	0
54.851408093145018	30.003856834573803	0	0
39.224712374343696	24.613459733061106	0	0
40.148591906854982	24.996143165426197	0	0
40.531275339220073	24.072263632914911	0	0
39.607395806708787	23.68958020054982	0	0
50.003856834573803	20.148591906854982	0	0
50.927736367085089	20.531275339220073	0	0
51.31041979945018	19.607395806708787	0	0
50.386540266938894	19.224712374343696	0	0
39.224712374343696	30.386540266938894	0	0
39.607395806708787	31.31041979945018	0	0
40.531275339220073	30.927736367085089	0	0
40.148591906854982	30.003856834573803	0	0
50.003856834573803	34.851408093145018	0	0
50.386540266938894	35.775287625656304	0	0
51.31041979945018	35.392604193291213	0	0
50.927736367085089	34.468724660779927	0	0
43.68958020054982	19.607395806708787	0	0
44.072263632914911	20.531275339220073	0	0
44.996143165426197	20.148591906854982	0	0
44.613459733061106	19.224712374343696	0	0
54.468724660779927	24.072263632914911	0	0
54.851408093145018	24.996143165426197	0	0
55.775287625656304	24.613459733061106	0	0
55.392604193291213	23.68958020054982	0	0
47	16.25	0	0
48	16.25	0	0
48	15.25	0	0
47	15.25	0	0
55.25	8	0	0
56.25	8	0	0
56.25	7	0	0
55.25	7	0	0
38.75	8	0	0
39.75	8	0	0
39.75	7	0	0
38.75	7	0	0
47	-0.25	0	0
48	-0.25	0	0
48	-1.25	0	0
47	-1.25	0	0
38.25	16.75	0	0
56.75	16.75	0	0
56.75	-1.75	0	0
38.25	-1.75	0	0
40.959262274024439	13.333630944789022	0	0
41.666369055210986	14.040737725975561	0	0
42.373475836397532	13.333630944789022	0	0
41.666369055210986	12.626524163602468	0	0
52.626524163602468	13.333630944789022	0	0
53.333630944789022	14.040737725975561	0	0
54.040737725975561	13.333630944789014	0	0
53.333630944789022	12.626524163602468	0	0
40.959262274024432	1.6663690552109856	0	0
41.666369055210978	2.3734758363975317	0	0
42.373475836397532	1.666369055210982	0	0
41.666369055210986	0.95926227402443587	0	0
52.626524163602468	1.666369055210982	0	0
53.333630944789022	2.3734758363975317	0	0
54.040737725975561	1.666369055210982	0	0
53.333630944789014	0.95926227402443587	0	0
43.68958020054982	15.392604193291213	0	0
44.613459733061106	15.775287625656304	0	0
44.996143165426197	14.851408093145018	0	0
44.072263632914911	14.468724660779927	0	0
54.468724660779927	10.927736367085089	0	0
55.392604193291213	11.31041979945018	0	0
55.775287625656304	10.386540266938894	0	0
54.851408093145018	10.003856834573803	0	0
39.224712374343696	4.6134597330611058	0	0
40.148591906854982	4.9961431654261972	0	0
40.531275339220073	4.0722636329149111	0	0
39.607395806708787	3.6895802005498197	0	0
50.003856834573803	0.14859190685498191	0	0
50.927736367085089	0.53127533922007331	0	0
51.31041979945018	-0.39260419329121277	0	0
50.386540266938894	-0.77528762565630416	0	0
39.224712374343696	10.386540266938894	0	0
39.607395806708787	11.31041979945018	0	0
40.531275339220073	10.927736367085089	0	0
40.148591906854982	10.003856834573803	0	0
50.003856834573803	14.851408093145018	0	0
50.386540266938894	15.775287625656304	0	0
51.31041979945018	15.392604193291213	0	0
50.927736367085089	14.468724660779927	0	0
43.68958020054982	-0.39260419329121277	0	0
44.072263632914911	0.53127533922007331	0	0
44.996143165426197	0.14859190685498191	0	0
44.613459733061106	-0.77528762565630416	0	0
54.468724660779927	4.0722636329149111	0	0
54.851408093145018	4.9961431654261972	0	0
55.775287625656304	4.6134597330611058	0	0
55.392604193291213	3.6895802005498197	0	0
[NumSegments] = 468
2	3	-1	0	0	0
3	0	-1	0	0	0
0	1	-1	0	0	0
1	2	-1	0	0	0
4	7	-1	0	0	0
7	6	-1	0	0	0
5	6	-1	0	0	0
4	5	-1	0	0	0
8	9	-1	0	0	0
9	10	-1	0	0	0
10	11	-1	0	0	0
11	8	-1	0	0	0
12	13	-1	0	0	0
13	14	-1	0	0	0
15	14	-1	0	0	0
12	15	-1	0	0	0
16	17	-1	0	0	0
17	18	-1	0	0	0
18	19	-1	0	0	0
16	19	-1	0	0	0
20	21	-1	0	0	0
21	22	-1	0	0	0
22	23	-1	0	0	0
23	20	-1	0	0	0
24	25	-1	0	0	0
25	26	-1	0	0	0
27	26	-1	0	0	0
24	27	-1	0	0	0
28	29	-1	0	0	0
29	30	-1	0	0	0
30	31	-1	0	0	0
31	28	-1	0	0	0
32	33	-1	0	0	0
33	34	-1	0	0	0
35	34	-1	0	0	0
32	35	-1	0	0	0
36	37	-1	0	0	0
37	38	-1	0	0	0
38	39	-1	0	0	0
39	36	-1	0	0	0
40	41	-1	0	0	0
41	42	-1	0	0	0
43	42	-1	0	0	0
40	43	-1	0	0	0
44	45	-1	0	0	0
45	46	-1	0	0	0
46	47	-1	0	0	0
47	44	-1	0	0	0
48	49	-1	0	0	0
49	50	-1	0	0	0
51	50	-1	0	0	0
48	51	-1	0	0	0
52	53	-1	0	0	0
53	54	-1	0	0	0
54	55	-1	0	0	0
55	52	-1	0	0	0
56	57	-1	0	0	0
57	58	-1	0	0	0
59	58	-1	0	0	0
56	59	-1	0	0	0
60	61	-1	0	0	0
61	62	-1	0	0	0
62	63	-1	0	0	0
63	60	-1	0	0	0
64	65	-1	0	0	0
65	66	-1	0	0	0
67	66	-1	0	0	0
64	67	-1	0	0	0
68	69	-1	0	0	0
69	70	-1	0	0	0
70	71	-1	0	0	0
71	68	-1	0	0	0
72	73	-1	0	0	0
73	74	-1	0	0	0
75	74	-1	0	0	0
72	75	-1	0	0	0
76	77	-1	0	0	0
77	78	-1	0	0	0
78	79	-1	0	0	0
79	76	-1	0	0	0
80	81	-1	0	0	0
81	82	-1	0	0	0
83	82	-1	0	0	0
80	83	-1	0	0	0
84	85	-1	0	0	0
85	86	-1	0	0	0
86	87	-1	0	0	0
87	84	-1	0	0	0
88	89	-1	0	0	0
89	90	-1	0	0	0
91	90	-1	0	0	0
88	91	-1	0	0	0
92	93	-1	0	0	0
93	94	-1	0	0	0
94	95	-1	0	0	0
95	92	-1	0	0	0
96	97	-1	0	0	0
97	98	-1	0	0	0
99	98	-1	0	0	0
96	99	-1	0	0	0
100	101	-1	0	0	0
101	102	-1	0	0	0
102	103	-1	0	0	0
103	100	-1	0	0	0
104	105	-1	0	0	0
105	106	-1	0	0	0
107	106	-1	0	0	0
104	107	-1	0	0	0
108	109	-1	0	0	0
109	110	-1	0	0	0
110	111	-1	0	0	0
111	108	-1	0	0	0
112	113	-1	0	0	0
113	114	-1	0	0	0
115	114	-1	0	0	0
112	115	-1	0	0	0
116	117	-1	0	0	0
117	118	-1	0	0	0
118	119	-1	0	0	0
119	116	-1	0	0	0
120	121	-1	0	0	0
121	122	-1	0	0	0
123	122	-1	0	0	0
120	123	-1	0	0	0
124	125	-1	0	0	0
125	126	-1	0	0	0
126	127	-1	0	0	0
127	124	-1	0	0	0
128	129	-1	0	0	0
129	130	-1	0	0	0
131	130	-1	0	0	0
128	131	-1	0	0	0
132	133	-1	0	0	0
133	134	-1	0	0	0
134	135	-1	0	0	0
132	135	-1	0	0	0
136	137	-1	0	0	0
137	138	-1	0	0	0
138	139	-1	0	0	0
139	136	-1	0	0	0
140	141	-1	0	0	0
141	142	-1	0	0	0
143	142	-1	0	0	0
140	143	-1	0	0	0
144	145	-1	0	0	0
145	146	-1	0	0	0
146	147	-1	0	0	0
147	144	-1	0	0	0
148	149	-1	0	0	0
149	150	-1	0	0	0
151	150	-1	0	0	0
148	151	-1	0	0	0
152	153	-1	0	0	0
153	154	-1	0	0	0
154	155	-1	0	0	0
155	152	-1	0	0	0
156	157	-1	0	0	0
157	158	-1	0	0	0
159	158	-1	0	0	0
156	159	-1	0	0	0
160	161	-1	0	0	0
161	162	-1	0	0	0
162	163	-1	0	0	0
163	160	-1	0	0	0
164	165	-1	0	0	0
165	166	-1	0	0	0
167	166	-1	0	0	0
164	167	-1	0	0	0
168	169	-1	0	0	0
169	170	-1	0	0	0
170	171	-1	0	0	0
171	168	-1	0	0	0
172	173	-1	0	0	0
173	174	-1	0	0	0
175	174	-1	0	0	0
172	175	-1	0	0	0
176	177	-1	0	0	0
177	178	-1	0	0	0
178	179	-1	0	0	0
179	176	-1	0	0	0
180	181	-1	0	0	0
181	182	-1	0	0	0
183	182	-1	0	0	0
180	183	-1	0	0	0
184	185	-1	0	0	0
185	186	-1	0	0	0
186	187	-1	0	0	0
187	184	-1	0	0	0
188	189	-1	0	0	0
189	190	-1	0	0	0
191	190	-1	0	0	0
188	191	-1	0	0	0
192	193	-1	0	0	0
193	194	-1	0	0	0
194	195	-1	0	0	0
195	192	-1	0	0	0
196	197	-1	0	0	0
197	198	-1	0	0	0
199	198	-1	0	0	0
196	199	-1	0	0	0
200	201	-1	0	0	0
201	202	-1	0	0	0
202	203	-1	0	0	0
203	200	-1	0	0	0
204	205	-1	0	0	0
205	206	-1	0	0	0
207	206	-1	0	0	0
204	207	-1	0	0	0
208	209	-1	0	0	0
209	210	-1	0	0	0
210	211	-1	0	0	0
211	208	-1	0	0	0
212	213	-1	0	0	0
213	214	-1	0	0	0
215	214	-1	0	0	0
212	215	-1	0	0	0
216	217	-1	0	0	0
217	218	-1	0	0	0
218	219	-1	0	0	0
219	216	-1	0	0	0
220	221	-1	0	0	0
221	222	-1	0	0	0
223	222	-1	0	0	0
220	223	-1	0	0	0
224	225	-1	0	0	0
225	226	-1	0	0	0
226	227	-1	0	0	0
227	224	-1	0	0	0
228	229	-1	0	0	0
229	230	-1	0	0	0
231	230	-1	0	0	0
228	231	-1	0	0	0
232	233	-1	0	0	0
233	234	-1	0	0	0
234	235	-1	0	0	0
235	232	-1	0	0	0
236	237	-1	0	0	0
237	238	-1	0	0	0
239	238	-1	0	0	0
236	239	-1	0	0	0
240	241	-1	0	0	0
241	242	-1	0	0	0
242	243	-1	0	0	0
243	240	-1	0	0	0
244	245	-1	0	0	0
245	246	-1	0	0	0
247	246	-1	0	0	0
244	247	-1	0	0	0
248	249	-1	0	0	0
249	250	-1	0	0	0
250	251	-1	0	0	0
251	248	-1	0	0	0
252	253	-1	0	0	0
253	254	-1	0	0	0
255	254	-1	0	0	0
252	255	-1	0	0	0
256	257	-1	0	0	0
257	258	-1	0	0	0
258	259	-1	0	0	0
259	256	-1	0	0	0
260	261	-1	0	0	0
261	262	-1	0	0	0
263	262	-1	0	0	0
260	263	-1	0	0	0
264	265	-1	0	0	0
265	266	-1	0	0	0
266	267	-1	0	0	0
267	264	-1	0	0	0
268	269	-1	0	0	0
269	270	-1	0	0	0
271	270	-1	0	0	0
268	271	-1	0	0	0
272	273	-1	0	0	0
273	274	-1	0	0	0
274	275	-1	0	0	0
275	272	-1	0	0	0
276	277	-1	0	0	0
277	278	-1	0	0	0
279	278	-1	0	0	0
276	279	-1	0	0	0
280	281	-1	0	0	0
281	282	-1	0	0	0
282	283	-1	0	0	0
280	283	-1	0	0	0
284	285	-1	0	0	0
285	286	-1	0	0	0
286	287	-1	0	0	0
287	284	-1	0	0	0
288	289	-1	0	0	0
289	290	-1	0	0	0
291	290	-1	0	0	0
288	291	-1	0	0	0
292	293	-1	0	0	0
293	294	-1	0	0	0
294	295	-1	0	0	0
295	292	-1	0	0	0
296	297	-1	0	0	0
297	298	-1	0	0	0
299	298	-1	0	0	0
296	299	-1	0	0	0
300	301	-1	0	0	0
301	302	-1	0	0	0
302	303	-1	0	0	0
303	300	-1	0	0	0
304	305	-1	0	0	0
305	306	-1	0	0	0
307	306	-1	0	0	0
304	307	-1	0	0	0
308	309	-1	0	0	0
309	310	-1	0	0	0
310	311	-1	0	0	0
311	308	-1	0	0	0
312	313	-1	0	0	0
313	314	-1	0	0	0
315	314	-1	0	0	0
312	315	-1	0	0	0
316	317	-1	0	0	0
317	318	-1	0	0	0
318	319	-1	0	0	0
319	316	-1	0	0	0
320	321	-1	0	0	0
321	322	-1	0	0	0
323	322	-1	0	0	0
320	323	-1	0	0	0
324	325	-1	0	0	0
325	326	-1	0	0	0
326	327	-1	0	0	0
327	324	-1	0	0	0
328	329	-1	0	0	0
329	330	-1	0	0	0
331	330	-1	0	0	0
328	331	-1	0	0	0
332	333	-1	0	0	0
333	334	-1	0	0	0
334	335	-1	0	0	0
335	332	-1	0	0	0
336	337	-1	0	0	0
337	338	-1	0	0	0
339	338	-1	0	0	0
336	339	-1	0	0	0
340	341	-1	0	0	0
341	342	-1	0	0	0
342	343	-1	0	0	0
343	340	-1	0	0	0
344	345	-1	0	0	0
345	346	-1	0	0	0
347	346	-1	0	0	0
344	347	-1	0	0	0
348	349	-1	0	0	0
349	350	-1	0	0	0
350	351	-1	0	0	0
348	351	-1	0	0	0
352	353	-1	0	0	0
353	354	-1	0	0	0
354	355	-1	0	0	0
355	352	-1	0	0	0
356	357	-1	0	0	0
357	358	-1	0	0	0
359	358	-1	0	0	0
356	359	-1	0	0	0
360	361	-1	0	0	0
361	362	-1	0	0	0
362	363	-1	0	0	0
363	360	-1	0	0	0
364	365	-1	0	0	0
365	366	-1	0	0	0
367	366	-1	0	0	0
364	367	-1	0	0	0
368	369	-1	0	0	0
369	370	-1	0	0	0
370	371	-1	0	0	0
371	368	-1	0	0	0
372	373	-1	0	0	0
373	374	-1	0	0	0
375	374	-1	0	0	0
372	375	-1	0	0	0
376	377	-1	0	0	0
377	378	-1	0	0	0
378	379	-1	0	0	0
379	376	-1	0	0	0
380	381	-1	0	0	0
381	382	-1	0	0	0
383	382	-1	0	0	0
380	383	-1	0	0	0
384	385	-1	0	0	0
385	386	-1	0	0	0
386	387	-1	0	0	0
387	384	-1	0	0	0
388	389	-1	0	0	0
389	390	-1	0	0	0
391	390	-1	0	0	0
388	391	-1	0	0	0
392	393	-1	0	0	0
393	394	-1	0	0	0
394	395	-1	0	0	0
395	392	-1	0	0	0
396	397	-1	0	0	0
397	398	-1	0	0	0
399	398	-1	0	0	0
396	399	-1	0	0	0
400	401	-1	0	0	0
401	402	-1	0	0	0
402	403	-1	0	0	0
403	400	-1	0	0	0
404	405	-1	0	0	0
405	406	-1	0	0	0
407	406	-1	0	0	0
404	407	-1	0	0	0
408	409	-1	0	0	0
409	410	-1	0	0	0
410	411	-1	0	0	0
411	408	-1	0	0	0
412	413	-1	0	0	0
413	414	-1	0	0	0
415	414	-1	0	0	0
412	415	-1	0	0	0
416	417	-1	0	0	0
417	418	-1	0	0	0
418	419	-1	0	0	0
416	419	-1	0	0	0
420	421	-1	0	0	0
421	422	-1	0	0	0
422	423	-1	0	0	0
423	420	-1	0	0	0
424	425	-1	0	0	0
425	426	-1	0	0	0
427	426	-1	0	0	0
424	427	-1	0	0	0
428	429	-1	0	0	0
429	430	-1	0	0	0
430	431	-1	0	0	0
431	428	-1	0	0	0
432	433	-1	0	0	0
433	434	-1	0	0	0
435	434	-1	0	0	0
432	435	-1	0	0	0
436	437	-1	0	0	0
437	438	-1	0	0	0
438	439	-1	0	0	0
439	436	-1	0	0	0
440	441	-1	0	0	0
441	442	-1	0	0	0
443	442	-1	0	0	0
440	443	-1	0	0	0
444	445	-1	0	0	0
445	446	-1	0	0	0
446	447	-1	0	0	0
447	444	-1	0	0	0
448	449	-1	0	0	0
449	450	-1	0	0	0
451	450	-1	0	0	0
448	451	-1	0	0	0
452	453	-1	0	0	0
453	454	-1	0	0	0
454	455	-1	0	0	0
455	452	-1	0	0	0
456	457	-1	0	0	0
457	458	-1	0	0	0
459	458	-1	0	0	0
456	459	-1	0	0	0
460	461	-1	0	0	0
461	462	-1	0	0	0
462	463	-1	0	0	0
463	460	-1	0	0	0
464	465	-1	0	0	0
465	466	-1	0	0	0
467	466	-1	0	0	0
464	467	-1	0	0	0
[NumArcSegments] = 0
[NumHoles] = 0
[NumBlockLabels] = 117
7.5	15.75	3	-1	0	90	0	1	0
7.5	-0.75	3	-1	0	90	0	1	0
15.75	7.5	3	-1	0	270	0	1	0
-0.75	7.5	3	-1	0	270	0	1	0
15.5	-0.75	2	-1	0	0	0	1	0
1.5	13.5	3	-1	0	180	0	1	0
13	13.25	3	-1	0	0	0	1	0
13.5	1.5	3	-1	0	180	0	1	0
1.75	1.75	3	-1	0	0	0	1	0
4.3428616829880093	15.122006143218115	3	-1	0	135	0	1	0
10.657138317011992	-0.12200614321811543	3	-1	0	135	0	1	0
15.122006143218115	10.657138317011992	3	-1	0	315	0	1	0
-0.12200614321811543	4.3428616829880093	3	-1	0	315	0	1	0
-0.33937778925825857	10.747176600877182	3	-1	0	225	0	1	0
10.38090769271281	14.917066189947892	3	-1	0	45	0	1	0
15.339377789258258	4.2528233991228186	3	-1	0	225	0	1	0
4.3881224241593682	-0.012737048039165089	3	-1	0	45	0	1	0
5.8905048433669425	15.591478563326651	3	-1	0	112.5	0	1	0
9.1094951566330575	-0.5914785633266515	3	-1	0	112.5	0	1	0
15.591478563326651	9.1094951566330575	3	-1	0	292.5	0	1	0
-0.5914785633266515	5.8905048433669425	3	-1	0	292.5	0	1	0
0.44474638548384782	12.214169750322613	3	-1	0	202.5	0	1	0
11.772549690625031	14.21251213340728	3	-1	0	22.5	0	1	0
14.555253614516152	2.785830249677387	3	-1	0	202.5	0	1	0
2.9822539892741631	0.73871528608868786	3	-1	0	22.5	0	1	0
2.9165455775882823	14.359624301495998	3	-1	0	157.5	0	1	0
12.08345442241172	0.64037569850400278	3	-1	0	157.5	0	1	0
14.359624301495998	12.08345442241172	3	-1	0	337.5	0	1	0
0.64037569850400278	2.9165455775882823	3	-1	0	337.5	0	1	0
-0.82223907193288426	9.1553962756976581	3	-1	0	247.5	0	1	0
8.878554027801286	15.336586552347446	3	-1	0	67.5	0	1	0
15.822239071932884	5.8446037243023419	3	-1	0	247.5	0	1	0
5.9135785691230787	-0.47547911060234771	3	-1	0	67.5	0	1	0
-12.5	6	2	-1	0	90	0	1	0
-12.5	15.699999999999999	3	-1	0	90	0	1	0
-14.099740640532252	15.542439299306489	3	-1	0	90	0	1	0
-15.638004145393737	15.07581216659255	3	-1	0	90	0	1	0
-17.055675910760737	14.31805082088087	3	-1	0	90	0	1	0
-18.298275605729689	13.298275605729689	3	-1	0	90	0	1	0
-19.31805082088087	12.055675910760739	3	-1	0	90	0	1	0
-20.075812166592549	10.638004145393737	3	-1	0	90	0	1	0
-20.542439299306487	9.0997406405322518	3	-1	0	90	0	1	0
-20.699999999999999	7.5000000000000009	3	-1	0	90	0	1	0
-20.542439299306491	5.9002593594677508	3	-1	0	90	0	1	0
-20.075812166592549	4.3619958546062652	3	-1	0	90	0	1	0
-19.31805082088087	2.9443240892392613	3	-1	0	90	0	1	0
-18.298275605729689	1.7017243942703111	3	-1	0	90	0	1	0
-17.055675910760737	0.68194917911912878	3	-1	0	90	0	1	0
-15.638004145393737	-0.075812166592550412	3	-1	0	90	0	1	0
-14.09974064053225	-0.54243929930648882	3	-1	0	90	0	1	0
-12.500000000000002	-0.69999999999999929	3	-1	0	90	0	1	0
-10.900259359467752	-0.5424392993064906	3	-1	0	90	0	1	0
-9.3619958546062687	-0.075812166592552188	3	-1	0	90	0	1	0
-7.9443240892392613	0.68194917911912967	3	-1	0	90	0	1	0
-6.7017243942703111	1.7017243942703093	3	-1	0	90	0	1	0
-5.6819491791191332	2.9443240892392568	3	-1	0	90	0	1	0
-4.9241878334074487	4.3619958546062669	3	-1	0	90	0	1	0
-4.457560700693513	5.9002593594677446	3	-1	0	90	0	1	0
-4.3000000000000007	7.4999999999999982	3	-1	0	90	0	1	0
-4.4575607006935112	9.0997406405322518	3	-1	0	90	0	1	0
-4.9241878334074505	10.638004145393738	3	-1	0	90	0	1	0
-5.6819491791191279	12.055675910760733	3	-1	0	90	0	1	0